[root]
type=Root
children=system
eventq_index=0
full_system=true
sim_quantum=0
time_sync_enable=false
time_sync_period=100000000000
time_sync_spin_threshold=100000000

[system]
type=LinuxX86System
children=acpi_description_table_pointer apicbridge bridge clk_domain cpu0 cpu1 cpu_clk_domain cpu_voltage_domain dvfs_handler e820_table intel_mp_pointer intel_mp_table intrctrl iobridge iobus mem_ctrls membus pc smbios_table voltage_domain
acpi_description_table_pointer=system.acpi_description_table_pointer
boot_osflags=earlyprintk=ttyS0 console=ttyS0 lpj=7999923 root=/dev/hda1
cache_line_size=64
clk_domain=system.clk_domain
default_p_state=UNDEFINED
e820_table=system.e820_table
eventq_index=0
exit_on_work_items=false
init_param=0
intel_mp_pointer=system.intel_mp_pointer
intel_mp_table=system.intel_mp_table
kernel=/home/cuihongwei/server17/fullsystem/binaries/x86_64-vmlinux-2.6.22.9.smp
kernel_addr_check=true
kernel_extras=
kvm_vm=Null
load_addr_mask=18446744073709551615
load_offset=0
mem_mode=atomic
mem_ranges=0:536870911:0:0:0:0
memories=system.mem_ctrls
mmap_using_noreserve=false
multi_thread=false
num_work_ids=16
p_state_clk_gate_bins=20
p_state_clk_gate_max=1000000000000
p_state_clk_gate_min=1000
power_model=
readfile=
smbios_table=system.smbios_table
symbolfile=
thermal_components=
thermal_model=Null
work_begin_ckpt_count=0
work_begin_cpu_id_exit=-1
work_begin_exit_count=0
work_cpus_ckpt_count=0
work_end_ckpt_count=0
work_end_exit_count=0
work_item_id=-1
system_port=system.membus.slave[1]

[system.acpi_description_table_pointer]
type=X86ACPIRSDP
children=xsdt
eventq_index=0
oem_id=
revision=2
rsdt=Null
xsdt=system.acpi_description_table_pointer.xsdt

[system.acpi_description_table_pointer.xsdt]
type=X86ACPIXSDT
creator_id=
creator_revision=0
entries=
eventq_index=0
oem_id=
oem_revision=0
oem_table_id=

[system.apicbridge]
type=Bridge
clk_domain=system.clk_domain
default_p_state=UNDEFINED
delay=50000
eventq_index=0
p_state_clk_gate_bins=20
p_state_clk_gate_max=1000000000000
p_state_clk_gate_min=1000
power_model=
ranges=11529215046068469760:11529215046068477951:0:0:0:0
req_size=16
resp_size=16
master=system.membus.slave[0]
slave=system.iobus.master[0]

[system.bridge]
type=Bridge
clk_domain=system.clk_domain
default_p_state=UNDEFINED
delay=50000
eventq_index=0
p_state_clk_gate_bins=20
p_state_clk_gate_max=1000000000000
p_state_clk_gate_min=1000
power_model=
ranges=3221225472:4294901760:0:0:0:0 9223372036854775808:11529215046068469759:0:0:0:0 13835058055282163712:18446744073709551615:0:0:0:0
req_size=16
resp_size=16
master=system.iobus.slave[0]
slave=system.membus.master[0]

[system.clk_domain]
type=SrcClockDomain
clock=1000
domain_id=-1
eventq_index=0
init_perf_level=0
voltage_domain=system.voltage_domain

[system.cpu0]
type=AtomicSimpleCPU
children=apic_clk_domain dtb interrupts isa itb tracer
branchPred=Null
checker=Null
clk_domain=system.cpu_clk_domain
cpu_id=0
default_p_state=UNDEFINED
do_checkpoint_insts=true
do_quiesce=true
do_statistics_insts=true
dtb=system.cpu0.dtb
eventq_index=0
fastmem=false
function_trace=false
function_trace_start=0
interrupts=system.cpu0.interrupts
isa=system.cpu0.isa
itb=system.cpu0.itb
max_insts_all_threads=0
max_insts_any_thread=0
max_loads_all_threads=0
max_loads_any_thread=0
numThreads=1
p_state_clk_gate_bins=20
p_state_clk_gate_max=1000000000000
p_state_clk_gate_min=1000
power_gating_on_idle=false
power_model=
profile=0
progress_interval=0
pwr_gating_latency=300
simpoint_start_insts=
simulate_data_stalls=false
simulate_inst_stalls=false
socket_id=0
switched_out=false
syscallRetryLatency=10000
system=system
tracer=system.cpu0.tracer
wait_for_remote_gdb=false
width=1
workload=
dcache_port=system.membus.slave[4]
icache_port=system.membus.slave[3]

[system.cpu0.apic_clk_domain]
type=DerivedClockDomain
clk_divider=16
clk_domain=system.cpu_clk_domain
eventq_index=0

[system.cpu0.dtb]
type=X86TLB
children=walker
eventq_index=0
size=64
walker=system.cpu0.dtb.walker

[system.cpu0.dtb.walker]
type=X86PagetableWalker
clk_domain=system.cpu_clk_domain
default_p_state=UNDEFINED
eventq_index=0
num_squash_per_cycle=4
p_state_clk_gate_bins=20
p_state_clk_gate_max=1000000000000
p_state_clk_gate_min=1000
power_model=
system=system
port=system.membus.slave[6]

[system.cpu0.interrupts]
type=X86LocalApic
clk_domain=system.cpu0.apic_clk_domain
default_p_state=UNDEFINED
eventq_index=0
int_latency=1000
p_state_clk_gate_bins=20
p_state_clk_gate_max=1000000000000
p_state_clk_gate_min=1000
pio_addr=2305843009213693952
pio_latency=100000
power_model=
system=system
int_master=system.membus.slave[7]
int_slave=system.membus.master[2]
pio=system.membus.master[1]

[system.cpu0.isa]
type=X86ISA
eventq_index=0

[system.cpu0.itb]
type=X86TLB
children=walker
eventq_index=0
size=64
walker=system.cpu0.itb.walker

[system.cpu0.itb.walker]
type=X86PagetableWalker
clk_domain=system.cpu_clk_domain
default_p_state=UNDEFINED
eventq_index=0
num_squash_per_cycle=4
p_state_clk_gate_bins=20
p_state_clk_gate_max=1000000000000
p_state_clk_gate_min=1000
power_model=
system=system
port=system.membus.slave[5]

[system.cpu0.tracer]
type=ExeTracer
eventq_index=0

[system.cpu1]
type=AtomicSimpleCPU
children=apic_clk_domain dtb interrupts isa itb tracer
branchPred=Null
checker=Null
clk_domain=system.cpu_clk_domain
cpu_id=1
default_p_state=UNDEFINED
do_checkpoint_insts=true
do_quiesce=true
do_statistics_insts=true
dtb=system.cpu1.dtb
eventq_index=0
fastmem=false
function_trace=false
function_trace_start=0
interrupts=system.cpu1.interrupts
isa=system.cpu1.isa
itb=system.cpu1.itb
max_insts_all_threads=0
max_insts_any_thread=0
max_loads_all_threads=0
max_loads_any_thread=0
numThreads=1
p_state_clk_gate_bins=20
p_state_clk_gate_max=1000000000000
p_state_clk_gate_min=1000
power_gating_on_idle=false
power_model=
profile=0
progress_interval=0
pwr_gating_latency=300
simpoint_start_insts=
simulate_data_stalls=false
simulate_inst_stalls=false
socket_id=0
switched_out=false
syscallRetryLatency=10000
system=system
tracer=system.cpu1.tracer
wait_for_remote_gdb=false
width=1
workload=
dcache_port=system.membus.slave[9]
icache_port=system.membus.slave[8]

[system.cpu1.apic_clk_domain]
type=DerivedClockDomain
clk_divider=16
clk_domain=system.cpu_clk_domain
eventq_index=0

[system.cpu1.dtb]
type=X86TLB
children=walker
eventq_index=0
size=64
walker=system.cpu1.dtb.walker

[system.cpu1.dtb.walker]
type=X86PagetableWalker
clk_domain=system.cpu_clk_domain
default_p_state=UNDEFINED
eventq_index=0
num_squash_per_cycle=4
p_state_clk_gate_bins=20
p_state_clk_gate_max=1000000000000
p_state_clk_gate_min=1000
power_model=
system=system
port=system.membus.slave[11]

[system.cpu1.interrupts]
type=X86LocalApic
clk_domain=system.cpu1.apic_clk_domain
default_p_state=UNDEFINED
eventq_index=0
int_latency=1000
p_state_clk_gate_bins=20
p_state_clk_gate_max=1000000000000
p_state_clk_gate_min=1000
pio_addr=2305843009213693952
pio_latency=100000
power_model=
system=system
int_master=system.membus.slave[12]
int_slave=system.membus.master[4]
pio=system.membus.master[3]

[system.cpu1.isa]
type=X86ISA
eventq_index=0

[system.cpu1.itb]
type=X86TLB
children=walker
eventq_index=0
size=64
walker=system.cpu1.itb.walker

[system.cpu1.itb.walker]
type=X86PagetableWalker
clk_domain=system.cpu_clk_domain
default_p_state=UNDEFINED
eventq_index=0
num_squash_per_cycle=4
p_state_clk_gate_bins=20
p_state_clk_gate_max=1000000000000
p_state_clk_gate_min=1000
power_model=
system=system
port=system.membus.slave[10]

[system.cpu1.tracer]
type=ExeTracer
eventq_index=0

[system.cpu_clk_domain]
type=SrcClockDomain
clock=500
domain_id=-1
eventq_index=0
init_perf_level=0
voltage_domain=system.cpu_voltage_domain

[system.cpu_voltage_domain]
type=VoltageDomain
eventq_index=0
voltage=1.0

[system.dvfs_handler]
type=DVFSHandler
domains=
enable=false
eventq_index=0
sys_clk_domain=system.clk_domain
transition_latency=100000000

[system.e820_table]
type=X86E820Table
children=entries0 entries1 entries2 entries3 entries4
entries=system.e820_table.entries0 system.e820_table.entries1 system.e820_table.entries2 system.e820_table.entries3 system.e820_table.entries4
eventq_index=0

[system.e820_table.entries0]
type=X86E820Entry
addr=0
eventq_index=0
range_type=1
size=654336

[system.e820_table.entries1]
type=X86E820Entry
addr=654336
eventq_index=0
range_type=2
size=394240

[system.e820_table.entries2]
type=X86E820Entry
addr=1048576
eventq_index=0
range_type=1
size=535822336

[system.e820_table.entries3]
type=X86E820Entry
addr=536870912
eventq_index=0
range_type=2
size=2684354560

[system.e820_table.entries4]
type=X86E820Entry
addr=4294901760
eventq_index=0
range_type=2
size=65536

[system.intel_mp_pointer]
type=X86IntelMPFloatingPointer
default_config=0
eventq_index=0
imcr_present=true
spec_rev=4

[system.intel_mp_table]
type=X86IntelMPConfigTable
children=base_entries00 base_entries01 base_entries02 base_entries03 base_entries04 base_entries05 base_entries06 base_entries07 base_entries08 base_entries09 base_entries10 base_entries11 base_entries12 base_entries13 base_entries14 base_entries15 base_entries16 base_entries17 base_entries18 base_entries19 base_entries20 base_entries21 base_entries22 base_entries23 base_entries24 base_entries25 base_entries26 base_entries27 base_entries28 base_entries29 base_entries30 base_entries31 base_entries32 base_entries33 ext_entries
base_entries=system.intel_mp_table.base_entries00 system.intel_mp_table.base_entries01 system.intel_mp_table.base_entries02 system.intel_mp_table.base_entries03 system.intel_mp_table.base_entries04 system.intel_mp_table.base_entries05 system.intel_mp_table.base_entries06 system.intel_mp_table.base_entries07 system.intel_mp_table.base_entries08 system.intel_mp_table.base_entries09 system.intel_mp_table.base_entries10 system.intel_mp_table.base_entries11 system.intel_mp_table.base_entries12 system.intel_mp_table.base_entries13 system.intel_mp_table.base_entries14 system.intel_mp_table.base_entries15 system.intel_mp_table.base_entries16 system.intel_mp_table.base_entries17 system.intel_mp_table.base_entries18 system.intel_mp_table.base_entries19 system.intel_mp_table.base_entries20 system.intel_mp_table.base_entries21 system.intel_mp_table.base_entries22 system.intel_mp_table.base_entries23 system.intel_mp_table.base_entries24 system.intel_mp_table.base_entries25 system.intel_mp_table.base_entries26 system.intel_mp_table.base_entries27 system.intel_mp_table.base_entries28 system.intel_mp_table.base_entries29 system.intel_mp_table.base_entries30 system.intel_mp_table.base_entries31 system.intel_mp_table.base_entries32 system.intel_mp_table.base_entries33
eventq_index=0
ext_entries=system.intel_mp_table.ext_entries
local_apic=4276092928
oem_id=
oem_table_addr=0
oem_table_size=0
product_id=
spec_rev=4

[system.intel_mp_table.base_entries00]
type=X86IntelMPProcessor
bootstrap=true
enable=true
eventq_index=0
family=0
feature_flags=0
local_apic_id=0
local_apic_version=20
model=0
stepping=0

[system.intel_mp_table.base_entries01]
type=X86IntelMPProcessor
bootstrap=false
enable=true
eventq_index=0
family=0
feature_flags=0
local_apic_id=1
local_apic_version=20
model=0
stepping=0

[system.intel_mp_table.base_entries02]
type=X86IntelMPIOAPIC
address=4273995776
enable=true
eventq_index=0
id=2
version=17

[system.intel_mp_table.base_entries03]
type=X86IntelMPBus
bus_id=0
bus_type=PCI   
eventq_index=0

[system.intel_mp_table.base_entries04]
type=X86IntelMPBus
bus_id=1
bus_type=ISA   
eventq_index=0

[system.intel_mp_table.base_entries05]
type=X86IntelMPIOIntAssignment
dest_io_apic_id=2
dest_io_apic_intin=16
eventq_index=0
interrupt_type=INT
polarity=ConformPolarity
source_bus_id=0
source_bus_irq=16
trigger=ConformTrigger

[system.intel_mp_table.base_entries06]
type=X86IntelMPIOIntAssignment
dest_io_apic_id=2
dest_io_apic_intin=0
eventq_index=0
interrupt_type=ExtInt
polarity=ConformPolarity
source_bus_id=1
source_bus_irq=0
trigger=ConformTrigger

[system.intel_mp_table.base_entries07]
type=X86IntelMPIOIntAssignment
dest_io_apic_id=2
dest_io_apic_intin=2
eventq_index=0
interrupt_type=INT
polarity=ConformPolarity
source_bus_id=1
source_bus_irq=0
trigger=ConformTrigger

[system.intel_mp_table.base_entries08]
type=X86IntelMPIOIntAssignment
dest_io_apic_id=2
dest_io_apic_intin=0
eventq_index=0
interrupt_type=ExtInt
polarity=ConformPolarity
source_bus_id=1
source_bus_irq=1
trigger=ConformTrigger

[system.intel_mp_table.base_entries09]
type=X86IntelMPIOIntAssignment
dest_io_apic_id=2
dest_io_apic_intin=1
eventq_index=0
interrupt_type=INT
polarity=ConformPolarity
source_bus_id=1
source_bus_irq=1
trigger=ConformTrigger

[system.intel_mp_table.base_entries10]
type=X86IntelMPIOIntAssignment
dest_io_apic_id=2
dest_io_apic_intin=0
eventq_index=0
interrupt_type=ExtInt
polarity=ConformPolarity
source_bus_id=1
source_bus_irq=3
trigger=ConformTrigger

[system.intel_mp_table.base_entries11]
type=X86IntelMPIOIntAssignment
dest_io_apic_id=2
dest_io_apic_intin=3
eventq_index=0
interrupt_type=INT
polarity=ConformPolarity
source_bus_id=1
source_bus_irq=3
trigger=ConformTrigger

[system.intel_mp_table.base_entries12]
type=X86IntelMPIOIntAssignment
dest_io_apic_id=2
dest_io_apic_intin=0
eventq_index=0
interrupt_type=ExtInt
polarity=ConformPolarity
source_bus_id=1
source_bus_irq=4
trigger=ConformTrigger

[system.intel_mp_table.base_entries13]
type=X86IntelMPIOIntAssignment
dest_io_apic_id=2
dest_io_apic_intin=4
eventq_index=0
interrupt_type=INT
polarity=ConformPolarity
source_bus_id=1
source_bus_irq=4
trigger=ConformTrigger

[system.intel_mp_table.base_entries14]
type=X86IntelMPIOIntAssignment
dest_io_apic_id=2
dest_io_apic_intin=0
eventq_index=0
interrupt_type=ExtInt
polarity=ConformPolarity
source_bus_id=1
source_bus_irq=5
trigger=ConformTrigger

[system.intel_mp_table.base_entries15]
type=X86IntelMPIOIntAssignment
dest_io_apic_id=2
dest_io_apic_intin=5
eventq_index=0
interrupt_type=INT
polarity=ConformPolarity
source_bus_id=1
source_bus_irq=5
trigger=ConformTrigger

[system.intel_mp_table.base_entries16]
type=X86IntelMPIOIntAssignment
dest_io_apic_id=2
dest_io_apic_intin=0
eventq_index=0
interrupt_type=ExtInt
polarity=ConformPolarity
source_bus_id=1
source_bus_irq=6
trigger=ConformTrigger

[system.intel_mp_table.base_entries17]
type=X86IntelMPIOIntAssignment
dest_io_apic_id=2
dest_io_apic_intin=6
eventq_index=0
interrupt_type=INT
polarity=ConformPolarity
source_bus_id=1
source_bus_irq=6
trigger=ConformTrigger

[system.intel_mp_table.base_entries18]
type=X86IntelMPIOIntAssignment
dest_io_apic_id=2
dest_io_apic_intin=0
eventq_index=0
interrupt_type=ExtInt
polarity=ConformPolarity
source_bus_id=1
source_bus_irq=7
trigger=ConformTrigger

[system.intel_mp_table.base_entries19]
type=X86IntelMPIOIntAssignment
dest_io_apic_id=2
dest_io_apic_intin=7
eventq_index=0
interrupt_type=INT
polarity=ConformPolarity
source_bus_id=1
source_bus_irq=7
trigger=ConformTrigger

[system.intel_mp_table.base_entries20]
type=X86IntelMPIOIntAssignment
dest_io_apic_id=2
dest_io_apic_intin=0
eventq_index=0
interrupt_type=ExtInt
polarity=ConformPolarity
source_bus_id=1
source_bus_irq=8
trigger=ConformTrigger

[system.intel_mp_table.base_entries21]
type=X86IntelMPIOIntAssignment
dest_io_apic_id=2
dest_io_apic_intin=8
eventq_index=0
interrupt_type=INT
polarity=ConformPolarity
source_bus_id=1
source_bus_irq=8
trigger=ConformTrigger

[system.intel_mp_table.base_entries22]
type=X86IntelMPIOIntAssignment
dest_io_apic_id=2
dest_io_apic_intin=0
eventq_index=0
interrupt_type=ExtInt
polarity=ConformPolarity
source_bus_id=1
source_bus_irq=9
trigger=ConformTrigger

[system.intel_mp_table.base_entries23]
type=X86IntelMPIOIntAssignment
dest_io_apic_id=2
dest_io_apic_intin=9
eventq_index=0
interrupt_type=INT
polarity=ConformPolarity
source_bus_id=1
source_bus_irq=9
trigger=ConformTrigger

[system.intel_mp_table.base_entries24]
type=X86IntelMPIOIntAssignment
dest_io_apic_id=2
dest_io_apic_intin=0
eventq_index=0
interrupt_type=ExtInt
polarity=ConformPolarity
source_bus_id=1
source_bus_irq=10
trigger=ConformTrigger

[system.intel_mp_table.base_entries25]
type=X86IntelMPIOIntAssignment
dest_io_apic_id=2
dest_io_apic_intin=10
eventq_index=0
interrupt_type=INT
polarity=ConformPolarity
source_bus_id=1
source_bus_irq=10
trigger=ConformTrigger

[system.intel_mp_table.base_entries26]
type=X86IntelMPIOIntAssignment
dest_io_apic_id=2
dest_io_apic_intin=0
eventq_index=0
interrupt_type=ExtInt
polarity=ConformPolarity
source_bus_id=1
source_bus_irq=11
trigger=ConformTrigger

[system.intel_mp_table.base_entries27]
type=X86IntelMPIOIntAssignment
dest_io_apic_id=2
dest_io_apic_intin=11
eventq_index=0
interrupt_type=INT
polarity=ConformPolarity
source_bus_id=1
source_bus_irq=11
trigger=ConformTrigger

[system.intel_mp_table.base_entries28]
type=X86IntelMPIOIntAssignment
dest_io_apic_id=2
dest_io_apic_intin=0
eventq_index=0
interrupt_type=ExtInt
polarity=ConformPolarity
source_bus_id=1
source_bus_irq=12
trigger=ConformTrigger

[system.intel_mp_table.base_entries29]
type=X86IntelMPIOIntAssignment
dest_io_apic_id=2
dest_io_apic_intin=12
eventq_index=0
interrupt_type=INT
polarity=ConformPolarity
source_bus_id=1
source_bus_irq=12
trigger=ConformTrigger

[system.intel_mp_table.base_entries30]
type=X86IntelMPIOIntAssignment
dest_io_apic_id=2
dest_io_apic_intin=0
eventq_index=0
interrupt_type=ExtInt
polarity=ConformPolarity
source_bus_id=1
source_bus_irq=13
trigger=ConformTrigger

[system.intel_mp_table.base_entries31]
type=X86IntelMPIOIntAssignment
dest_io_apic_id=2
dest_io_apic_intin=13
eventq_index=0
interrupt_type=INT
polarity=ConformPolarity
source_bus_id=1
source_bus_irq=13
trigger=ConformTrigger

[system.intel_mp_table.base_entries32]
type=X86IntelMPIOIntAssignment
dest_io_apic_id=2
dest_io_apic_intin=0
eventq_index=0
interrupt_type=ExtInt
polarity=ConformPolarity
source_bus_id=1
source_bus_irq=14
trigger=ConformTrigger

[system.intel_mp_table.base_entries33]
type=X86IntelMPIOIntAssignment
dest_io_apic_id=2
dest_io_apic_intin=14
eventq_index=0
interrupt_type=INT
polarity=ConformPolarity
source_bus_id=1
source_bus_irq=14
trigger=ConformTrigger

[system.intel_mp_table.ext_entries]
type=X86IntelMPBusHierarchy
bus_id=1
eventq_index=0
parent_bus=0
subtractive_decode=true

[system.intrctrl]
type=IntrControl
eventq_index=0
sys=system

[system.iobridge]
type=Bridge
clk_domain=system.clk_domain
default_p_state=UNDEFINED
delay=50000
eventq_index=0
p_state_clk_gate_bins=20
p_state_clk_gate_max=1000000000000
p_state_clk_gate_min=1000
power_model=
ranges=0:536870911:0:0:0:0
req_size=16
resp_size=16
master=system.membus.slave[2]
slave=system.iobus.master[18]

[system.iobus]
type=NoncoherentXBar
clk_domain=system.clk_domain
default_p_state=UNDEFINED
eventq_index=0
forward_latency=1
frontend_latency=2
p_state_clk_gate_bins=20
p_state_clk_gate_max=1000000000000
p_state_clk_gate_min=1000
power_model=
response_latency=2
use_default_range=false
width=16
default=system.pc.pci_host.pio
master=system.apicbridge.slave system.pc.south_bridge.cmos.pio system.pc.south_bridge.dma1.pio system.pc.south_bridge.ide.pio system.pc.south_bridge.keyboard.pio system.pc.south_bridge.pic1.pio system.pc.south_bridge.pic2.pio system.pc.south_bridge.pit.pio system.pc.south_bridge.speaker.pio system.pc.south_bridge.io_apic.pio system.pc.i_dont_exist1.pio system.pc.i_dont_exist2.pio system.pc.behind_pci.pio system.pc.com_1.pio system.pc.fake_com_2.pio system.pc.fake_com_3.pio system.pc.fake_com_4.pio system.pc.fake_floppy.pio system.iobridge.slave
slave=system.bridge.master system.pc.south_bridge.ide.dma system.pc.south_bridge.io_apic.int_master

[system.mem_ctrls]
type=DRAMCtrl
IDD0=0.055
IDD02=0.0
IDD2N=0.032
IDD2N2=0.0
IDD2P0=0.0
IDD2P02=0.0
IDD2P1=0.032
IDD2P12=0.0
IDD3N=0.038
IDD3N2=0.0
IDD3P0=0.0
IDD3P02=0.0
IDD3P1=0.038
IDD3P12=0.0
IDD4R=0.157
IDD4R2=0.0
IDD4W=0.125
IDD4W2=0.0
IDD5=0.235
IDD52=0.0
IDD6=0.02
IDD62=0.0
VDD=1.5
VDD2=0.0
activation_limit=4
addr_mapping=RoRaBaCoCh
bank_groups_per_rank=0
banks_per_rank=8
burst_length=8
channels=1
clk_domain=system.clk_domain
conf_table_reported=true
default_p_state=UNDEFINED
device_bus_width=8
device_rowbuffer_size=1024
device_size=536870912
devices_per_rank=8
dll=true
eventq_index=0
in_addr_map=true
kvm_map=true
max_accesses_per_row=16
mem_sched_policy=frfcfs
min_writes_per_switch=16
null=false
p_state_clk_gate_bins=20
p_state_clk_gate_max=1000000000000
p_state_clk_gate_min=1000
page_policy=open_adaptive
power_model=
range=0:536870911:6:19:0:0
ranks_per_channel=2
read_buffer_size=32
static_backend_latency=10000
static_frontend_latency=10000
tBURST=5000
tCCD_L=0
tCK=1250
tCL=13750
tCS=2500
tRAS=35000
tRCD=13750
tREFI=7800000
tRFC=260000
tRP=13750
tRRD=6000
tRRD_L=0
tRTP=7500
tRTW=2500
tWR=15000
tWTR=7500
tXAW=30000
tXP=6000
tXPDLL=0
tXS=270000
tXSDLL=0
write_buffer_size=64
write_high_thresh_perc=85
write_low_thresh_perc=50
port=system.membus.master[5]

[system.membus]
type=CoherentXBar
children=badaddr_responder snoop_filter
clk_domain=system.clk_domain
default_p_state=UNDEFINED
eventq_index=0
forward_latency=4
frontend_latency=3
p_state_clk_gate_bins=20
p_state_clk_gate_max=1000000000000
p_state_clk_gate_min=1000
point_of_coherency=true
point_of_unification=true
power_model=
response_latency=2
snoop_filter=system.membus.snoop_filter
snoop_response_latency=4
system=system
use_default_range=false
width=16
default=system.membus.badaddr_responder.pio
master=system.bridge.slave system.cpu0.interrupts.pio system.cpu0.interrupts.int_slave system.cpu1.interrupts.pio system.cpu1.interrupts.int_slave system.mem_ctrls.port
slave=system.apicbridge.master system.system_port system.iobridge.master system.cpu0.icache_port system.cpu0.dcache_port system.cpu0.itb.walker.port system.cpu0.dtb.walker.port system.cpu0.interrupts.int_master system.cpu1.icache_port system.cpu1.dcache_port system.cpu1.itb.walker.port system.cpu1.dtb.walker.port system.cpu1.interrupts.int_master

[system.membus.badaddr_responder]
type=IsaFake
clk_domain=system.clk_domain
default_p_state=UNDEFINED
eventq_index=0
fake_mem=false
p_state_clk_gate_bins=20
p_state_clk_gate_max=1000000000000
p_state_clk_gate_min=1000
pio_addr=0
pio_latency=100000
pio_size=8
power_model=
ret_bad_addr=true
ret_data16=65535
ret_data32=4294967295
ret_data64=18446744073709551615
ret_data8=255
system=system
update_data=false
warn_access=
pio=system.membus.default

[system.membus.snoop_filter]
type=SnoopFilter
eventq_index=0
lookup_latency=1
max_capacity=8388608
system=system

[system.pc]
type=Pc
children=behind_pci com_1 fake_com_2 fake_com_3 fake_com_4 fake_floppy i_dont_exist1 i_dont_exist2 pci_host south_bridge
eventq_index=0
intrctrl=system.intrctrl
system=system

[system.pc.behind_pci]
type=IsaFake
clk_domain=system.clk_domain
default_p_state=UNDEFINED
eventq_index=0
fake_mem=false
p_state_clk_gate_bins=20
p_state_clk_gate_max=1000000000000
p_state_clk_gate_min=1000
pio_addr=9223372036854779128
pio_latency=100000
pio_size=8
power_model=
ret_bad_addr=false
ret_data16=65535
ret_data32=4294967295
ret_data64=18446744073709551615
ret_data8=255
system=system
update_data=false
warn_access=
pio=system.iobus.master[12]

[system.pc.com_1]
type=Uart8250
children=device
clk_domain=system.clk_domain
default_p_state=UNDEFINED
device=system.pc.com_1.device
eventq_index=0
p_state_clk_gate_bins=20
p_state_clk_gate_max=1000000000000
p_state_clk_gate_min=1000
pio_addr=9223372036854776824
pio_latency=100000
platform=system.pc
power_model=
system=system
pio=system.iobus.master[13]

[system.pc.com_1.device]
type=Terminal
eventq_index=0
number=0
output=true
port=3456

[system.pc.fake_com_2]
type=IsaFake
clk_domain=system.clk_domain
default_p_state=UNDEFINED
eventq_index=0
fake_mem=false
p_state_clk_gate_bins=20
p_state_clk_gate_max=1000000000000
p_state_clk_gate_min=1000
pio_addr=9223372036854776568
pio_latency=100000
pio_size=8
power_model=
ret_bad_addr=false
ret_data16=65535
ret_data32=4294967295
ret_data64=18446744073709551615
ret_data8=255
system=system
update_data=false
warn_access=
pio=system.iobus.master[14]

[system.pc.fake_com_3]
type=IsaFake
clk_domain=system.clk_domain
default_p_state=UNDEFINED
eventq_index=0
fake_mem=false
p_state_clk_gate_bins=20
p_state_clk_gate_max=1000000000000
p_state_clk_gate_min=1000
pio_addr=9223372036854776808
pio_latency=100000
pio_size=8
power_model=
ret_bad_addr=false
ret_data16=65535
ret_data32=4294967295
ret_data64=18446744073709551615
ret_data8=255
system=system
update_data=false
warn_access=
pio=system.iobus.master[15]

[system.pc.fake_com_4]
type=IsaFake
clk_domain=system.clk_domain
default_p_state=UNDEFINED
eventq_index=0
fake_mem=false
p_state_clk_gate_bins=20
p_state_clk_gate_max=1000000000000
p_state_clk_gate_min=1000
pio_addr=9223372036854776552
pio_latency=100000
pio_size=8
power_model=
ret_bad_addr=false
ret_data16=65535
ret_data32=4294967295
ret_data64=18446744073709551615
ret_data8=255
system=system
update_data=false
warn_access=
pio=system.iobus.master[16]

[system.pc.fake_floppy]
type=IsaFake
clk_domain=system.clk_domain
default_p_state=UNDEFINED
eventq_index=0
fake_mem=false
p_state_clk_gate_bins=20
p_state_clk_gate_max=1000000000000
p_state_clk_gate_min=1000
pio_addr=9223372036854776818
pio_latency=100000
pio_size=2
power_model=
ret_bad_addr=false
ret_data16=65535
ret_data32=4294967295
ret_data64=18446744073709551615
ret_data8=255
system=system
update_data=false
warn_access=
pio=system.iobus.master[17]

[system.pc.i_dont_exist1]
type=IsaFake
clk_domain=system.clk_domain
default_p_state=UNDEFINED
eventq_index=0
fake_mem=false
p_state_clk_gate_bins=20
p_state_clk_gate_max=1000000000000
p_state_clk_gate_min=1000
pio_addr=9223372036854775936
pio_latency=100000
pio_size=1
power_model=
ret_bad_addr=false
ret_data16=65535
ret_data32=4294967295
ret_data64=18446744073709551615
ret_data8=255
system=system
update_data=false
warn_access=
pio=system.iobus.master[10]

[system.pc.i_dont_exist2]
type=IsaFake
clk_domain=system.clk_domain
default_p_state=UNDEFINED
eventq_index=0
fake_mem=false
p_state_clk_gate_bins=20
p_state_clk_gate_max=1000000000000
p_state_clk_gate_min=1000
pio_addr=9223372036854776045
pio_latency=100000
pio_size=1
power_model=
ret_bad_addr=false
ret_data16=65535
ret_data32=4294967295
ret_data64=18446744073709551615
ret_data8=255
system=system
update_data=false
warn_access=
pio=system.iobus.master[11]

[system.pc.pci_host]
type=GenericPciHost
clk_domain=system.clk_domain
conf_base=13835058055282163712
conf_device_bits=8
conf_size=16777216
default_p_state=UNDEFINED
eventq_index=0
p_state_clk_gate_bins=20
p_state_clk_gate_max=1000000000000
p_state_clk_gate_min=1000
pci_dma_base=0
pci_mem_base=0
pci_pio_base=9223372036854775808
platform=system.pc
power_model=
system=system
pio=system.iobus.default

[system.pc.south_bridge]
type=SouthBridge
children=cmos dma1 ide int_lines0 int_lines1 int_lines2 int_lines3 int_lines4 int_lines5 int_lines6 io_apic keyboard pic1 pic2 pit speaker
cmos=system.pc.south_bridge.cmos
dma1=system.pc.south_bridge.dma1
eventq_index=0
io_apic=system.pc.south_bridge.io_apic
keyboard=system.pc.south_bridge.keyboard
pic1=system.pc.south_bridge.pic1
pic2=system.pc.south_bridge.pic2
pit=system.pc.south_bridge.pit
platform=system.pc
speaker=system.pc.south_bridge.speaker

[system.pc.south_bridge.cmos]
type=Cmos
children=int_pin
clk_domain=system.clk_domain
default_p_state=UNDEFINED
eventq_index=0
int_pin=system.pc.south_bridge.cmos.int_pin
p_state_clk_gate_bins=20
p_state_clk_gate_max=1000000000000
p_state_clk_gate_min=1000
pio_addr=9223372036854775920
pio_latency=100000
power_model=
system=system
time=Sun Jan  1 00:00:00 2012
pio=system.iobus.master[1]

[system.pc.south_bridge.cmos.int_pin]
type=X86IntSourcePin
eventq_index=0

[system.pc.south_bridge.dma1]
type=I8237
clk_domain=system.clk_domain
default_p_state=UNDEFINED
eventq_index=0
p_state_clk_gate_bins=20
p_state_clk_gate_max=1000000000000
p_state_clk_gate_min=1000
pio_addr=9223372036854775808
pio_latency=100000
power_model=
system=system
pio=system.iobus.master[2]

[system.pc.south_bridge.ide]
type=IdeController
children=disks0 disks1
BAR0=496
BAR0LegacyIO=true
BAR0Size=8
BAR1=1012
BAR1LegacyIO=true
BAR1Size=3
BAR2=368
BAR2LegacyIO=true
BAR2Size=8
BAR3=884
BAR3LegacyIO=true
BAR3Size=3
BAR4=1
BAR4LegacyIO=false
BAR4Size=16
BAR5=1
BAR5LegacyIO=false
BAR5Size=0
BIST=0
CacheLineSize=0
CapabilityPtr=0
CardbusCIS=0
ClassCode=1
Command=0
DeviceID=28945
ExpansionROM=0
HeaderType=0
InterruptLine=14
InterruptPin=1
LatencyTimer=0
LegacyIOBase=9223372036854775808
MSICAPBaseOffset=0
MSICAPCapId=0
MSICAPMaskBits=0
MSICAPMsgAddr=0
MSICAPMsgCtrl=0
MSICAPMsgData=0
MSICAPMsgUpperAddr=0
MSICAPNextCapability=0
MSICAPPendingBits=0
MSIXCAPBaseOffset=0
MSIXCAPCapId=0
MSIXCAPNextCapability=0
MSIXMsgCtrl=0
MSIXPbaOffset=0
MSIXTableOffset=0
MaximumLatency=0
MinimumGrant=0
PMCAPBaseOffset=0
PMCAPCapId=0
PMCAPCapabilities=0
PMCAPCtrlStatus=0
PMCAPNextCapability=0
PXCAPBaseOffset=0
PXCAPCapId=0
PXCAPCapabilities=0
PXCAPDevCap2=0
PXCAPDevCapabilities=0
PXCAPDevCtrl=0
PXCAPDevCtrl2=0
PXCAPDevStatus=0
PXCAPLinkCap=0
PXCAPLinkCtrl=0
PXCAPLinkStatus=0
PXCAPNextCapability=0
ProgIF=128
Revision=0
Status=640
SubClassCode=1
SubsystemID=0
SubsystemVendorID=0
VendorID=32902
clk_domain=system.clk_domain
config_latency=20000
ctrl_offset=0
default_p_state=UNDEFINED
disks=system.pc.south_bridge.ide.disks0 system.pc.south_bridge.ide.disks1
eventq_index=0
host=system.pc.pci_host
io_shift=0
p_state_clk_gate_bins=20
p_state_clk_gate_max=1000000000000
p_state_clk_gate_min=1000
pci_bus=0
pci_dev=4
pci_func=0
pio_latency=30000
power_model=
system=system
dma=system.iobus.slave[1]
pio=system.iobus.master[3]

[system.pc.south_bridge.ide.disks0]
type=IdeDisk
children=image
delay=1000000
driveID=master
eventq_index=0
image=system.pc.south_bridge.ide.disks0.image

[system.pc.south_bridge.ide.disks0.image]
type=CowDiskImage
children=child
child=system.pc.south_bridge.ide.disks0.image.child
eventq_index=0
image_file=
read_only=false
table_size=65536

[system.pc.south_bridge.ide.disks0.image.child]
type=RawDiskImage
eventq_index=0